ROMS/TOMS Framework: August 9, 2017
===================

Copyright (c) 2002-2017 The ROMS/TOMS Group
  Licensed under a MIT/X style license
  See License_ROMS.txt

svn: $HeadURL: https://www.myroms.org/svn/src/trunk/ROMS/Version $
svn: $LastChangedBy: arango $
svn: $LastChangedRevision: 864 $
svn: $LastChangedDate: 2017-08-10 00:11:10 -0400 (Thu, 10 Aug 2017) $